<NUMBER OF ZONES> 1
<NUMBER OF NODES> 7
<FIRST THRU NODE> 1
<NUMBER OF LINKS> 6
<END OF METADATA>


~	linkid	initNode	termNode	freeFlowTime 	cap	;
	1	2	1	1	1	;
	2	3	2	1	1	;
	3	4	3	1	1	;
	4	5	4	1	1	;
	5	6	2	1	1	;
	6	7	2	1	1	;